Version 4
SHEET 1 3332 680
WIRE 3024 -336 2736 -336
WIRE 3024 -272 3024 -336
WIRE 2928 -256 2896 -256
WIRE 2832 -192 2832 -256
WIRE 2928 -192 2928 -256
WIRE 2736 -128 2736 -336
WIRE 3024 -128 3024 -272
WIRE 2736 -32 2624 -32
WIRE 3104 -32 3024 -32
WIRE 3168 -32 3104 -32
WIRE 3328 -32 3168 -32
WIRE 3168 -16 3168 -32
WIRE 336 16 80 16
WIRE 320 32 96 32
WIRE 2528 64 2432 64
WIRE 2736 64 2528 64
WIRE 3168 64 3024 64
WIRE 304 80 288 80
WIRE 96 112 96 32
WIRE 128 112 96 112
WIRE 320 112 320 32
WIRE 320 112 288 112
WIRE 336 144 336 16
WIRE 336 144 288 144
WIRE 3168 144 3168 128
WIRE 2624 160 2624 -32
WIRE 2736 160 2624 160
WIRE 3088 160 3024 160
WIRE 304 176 304 80
WIRE 304 176 288 176
WIRE 368 176 304 176
WIRE 3088 192 3088 160
WIRE 96 208 96 112
WIRE 128 208 96 208
WIRE 320 208 288 208
WIRE 80 240 80 16
WIRE 80 240 -96 240
WIRE 128 240 80 240
WIRE 3040 256 3040 240
WIRE 3040 256 3024 256
WIRE 3088 256 3040 256
WIRE 3168 256 3168 144
WIRE 3168 256 3088 256
WIRE 3232 256 3168 256
WIRE 128 304 80 304
WIRE 368 304 368 176
WIRE 368 304 288 304
WIRE 400 304 368 304
WIRE 2736 352 2688 352
WIRE 3088 352 3088 320
WIRE 3088 352 3024 352
WIRE 3168 368 3168 256
WIRE 2688 448 2688 416
WIRE 2736 448 2688 448
WIRE 3168 448 3024 448
WIRE 3168 464 3168 448
WIRE 2736 544 2688 544
WIRE 3088 544 3024 544
WIRE 3168 544 3088 544
WIRE 3328 544 3168 544
FLAG 128 144 0
FLAG 128 272 0
FLAG -112 -176 0
FLAG -192 -96 0
FLAG -112 -96 -12
FLAG -192 -176 12
FLAG 288 240 12
FLAG 288 272 -12
FLAG -96 320 0
FLAG 80 384 0
FLAG 2432 64 12
FLAG 2528 128 0
FLAG 3088 -272 0
FLAG 2736 256 0
FLAG 2688 608 0
FLAG 2880 608 0
FLAG 3088 608 0
FLAG 3232 256 0
SYMBOL AutoGenerated\\AD630 160 192 R0
SYMATTR InstName U1
SYMBOL voltage -112 -192 R0
WINDOW 123 0 0 Left 0
WINDOW 39 0 0 Left 0
SYMATTR InstName V2
SYMATTR Value 12
SYMBOL voltage -192 -192 R0
WINDOW 123 0 0 Left 0
WINDOW 39 0 0 Left 0
SYMATTR InstName V1
SYMATTR Value 12
SYMBOL voltage -96 224 R0
WINDOW 123 0 0 Left 0
WINDOW 39 0 0 Left 0
SYMATTR InstName V3
SYMATTR Value SINE(0 5 10k)
SYMBOL voltage 80 288 R0
WINDOW 123 0 0 Left 0
WINDOW 39 0 0 Left 0
SYMATTR InstName V4
SYMATTR Value PULSE(-2.5 2.5 0 0.1u 0.1u 5u 10u)
SYMBOL cap 2512 64 R0
SYMATTR InstName C1
SYMATTR Value 10µF
SYMBOL cap 2896 -272 R90
WINDOW 0 0 32 VBottom 2
WINDOW 3 32 32 VTop 2
SYMATTR InstName C2
SYMATTR Value 1µF
SYMBOL cap 3088 -288 R90
WINDOW 0 0 32 VBottom 2
WINDOW 3 32 32 VTop 2
SYMATTR InstName C3
SYMATTR Value 10µF
SYMBOL cap 2704 416 R180
WINDOW 0 24 56 Left 2
WINDOW 3 24 8 Left 2
SYMATTR InstName C4
SYMATTR Value 1µF
SYMBOL cap 2672 544 R0
SYMATTR InstName C5
SYMATTR Value 10µF
SYMBOL cap 3072 544 R0
SYMATTR InstName C6
SYMATTR Value 10µF
SYMBOL res 3152 448 R0
SYMATTR InstName R1
SYMATTR Value 604k
SYMBOL res 3152 352 R0
SYMATTR InstName R2
SYMATTR Value 52.3k
SYMBOL cap 3072 256 R0
SYMATTR InstName C7
SYMATTR Value 100nF
SYMBOL cap 3072 192 R0
SYMATTR InstName C8
SYMATTR Value 100nF
SYMBOL res 3152 -32 R0
SYMATTR InstName R3
SYMATTR Value 604k
SYMBOL res 3152 48 R0
SYMATTR InstName R4
SYMATTR Value 52.3k
SYMBOL cap 3088 -32 R0
SYMATTR InstName C9
SYMATTR Value 10µF
TEXT -224 408 Left 2 !.tran 500u
TEXT -232 432 Left 2 !.options cshunt=1e-15
