Version 4
SHEET 1 3332 680
WIRE 3024 -336 2736 -336
WIRE 3024 -272 3024 -336
WIRE 2928 -256 2896 -256
WIRE 2832 -192 2832 -256
WIRE 2928 -192 2928 -256
WIRE 2736 -128 2736 -336
WIRE 3024 -128 3024 -272
WIRE 2736 -32 2624 -32
WIRE 3104 -32 3024 -32
WIRE 3168 -32 3104 -32
WIRE 3328 -32 3168 -32
WIRE 3168 -16 3168 -32
WIRE 2528 64 2432 64
WIRE 2736 64 2528 64
WIRE 3168 64 3024 64
WIRE 3168 144 3168 128
WIRE 2624 160 2624 -32
WIRE 2736 160 2624 160
WIRE 3088 160 3024 160
WIRE 3088 192 3088 160
WIRE 3040 256 3040 240
WIRE 3040 256 3024 256
WIRE 3088 256 3040 256
WIRE 3168 256 3168 144
WIRE 3168 256 3088 256
WIRE 3232 256 3168 256
WIRE 2736 352 2688 352
WIRE 3088 352 3088 320
WIRE 3088 352 3024 352
WIRE 3168 368 3168 256
WIRE 2688 448 2688 416
WIRE 2736 448 2688 448
WIRE 3168 448 3024 448
WIRE 3168 464 3168 448
WIRE 2736 544 2688 544
WIRE 3088 544 3024 544
WIRE 3168 544 3088 544
WIRE 3328 544 3168 544
FLAG 2528 128 0
FLAG 3088 -272 0
FLAG 2736 256 0
FLAG 2688 608 0
FLAG 2880 608 0
FLAG 3088 608 0
FLAG 3232 256 0
FLAG 2432 144 0
SYMBOL cap 2512 64 R0
SYMATTR InstName C1
SYMATTR Value 10µF
SYMBOL cap 2896 -272 R90
WINDOW 0 0 32 VBottom 2
WINDOW 3 32 32 VTop 2
SYMATTR InstName C2
SYMATTR Value 1µF
SYMBOL cap 3088 -288 R90
WINDOW 0 0 32 VBottom 2
WINDOW 3 32 32 VTop 2
SYMATTR InstName C3
SYMATTR Value 10µF
SYMBOL cap 2704 416 R180
WINDOW 0 24 56 Left 2
WINDOW 3 24 8 Left 2
SYMATTR InstName C4
SYMATTR Value 1µF
SYMBOL cap 2672 544 R0
SYMATTR InstName C5
SYMATTR Value 10µF
SYMBOL cap 3072 544 R0
SYMATTR InstName C6
SYMATTR Value 10µF
SYMBOL res 3152 448 R0
SYMATTR InstName R1
SYMATTR Value 604k
SYMBOL res 3152 352 R0
SYMATTR InstName R2
SYMATTR Value 52.3k
SYMBOL cap 3072 256 R0
SYMATTR InstName C7
SYMATTR Value 100nF
SYMBOL cap 3072 192 R0
SYMATTR InstName C8
SYMATTR Value 100nF
SYMBOL res 3152 -32 R0
SYMATTR InstName R3
SYMATTR Value 604k
SYMBOL res 3152 48 R0
SYMATTR InstName R4
SYMATTR Value 52.3k
SYMBOL cap 3088 -32 R0
SYMATTR InstName C9
SYMATTR Value 10µF
SYMBOL PowerProducts\\LTC3265 2880 208 R0
SYMATTR InstName U1
SYMBOL voltage 2432 48 R0
SYMATTR InstName V1
